Version 4
SHEET 1 2052 680
WIRE 176 -16 0 -16
WIRE 336 -16 176 -16
WIRE 464 -16 336 -16
WIRE 912 -16 736 -16
WIRE 1200 -16 912 -16
WIRE 176 32 176 -16
WIRE 912 32 912 -16
WIRE 1200 32 1200 -16
WIRE 1136 80 1072 80
WIRE 336 112 336 -16
WIRE 1072 112 1072 80
WIRE 0 128 0 -16
WIRE 736 128 736 -16
WIRE 176 160 176 112
WIRE 272 160 176 160
WIRE 464 160 464 -16
WIRE 912 160 912 112
WIRE 1008 160 912 160
WIRE 400 208 336 208
WIRE 1072 224 1072 208
WIRE 1200 224 1200 128
WIRE 1200 224 1072 224
WIRE 176 240 176 160
WIRE 912 240 912 160
WIRE 0 256 0 208
WIRE 736 256 736 208
WIRE 464 272 464 256
WIRE 560 272 464 272
WIRE 1200 272 1200 224
WIRE 1296 272 1200 272
WIRE 464 288 464 272
WIRE 560 288 560 272
WIRE 1200 288 1200 272
WIRE 1296 288 1296 272
WIRE 464 384 464 368
WIRE 560 384 560 368
WIRE 560 384 464 384
WIRE 1200 384 1200 368
WIRE 1296 384 1296 368
WIRE 1296 384 1200 384
WIRE 176 400 176 320
WIRE 464 400 464 384
WIRE 912 400 912 320
WIRE 1200 400 1200 384
FLAG 0 256 0
FLAG 176 400 0
FLAG 464 400 0
FLAG 736 256 0
FLAG 912 400 0
FLAG 1200 400 0
SYMBOL Misc\\battery 0 112 R0
WINDOW 123 0 0 Left 2
WINDOW 39 24 128 Left 2
SYMATTR InstName V1
SYMATTR Value 5V
SYMBOL npn 272 112 R0
SYMATTR InstName Q1
SYMATTR Value 2N3904
SYMBOL res 160 16 R0
SYMATTR InstName R1
SYMATTR Value 10k
SYMBOL res 160 224 R0
SYMATTR InstName R2
SYMATTR Value 100k
SYMBOL npn 400 160 R0
SYMATTR InstName Q2
SYMATTR Value 2N3904
SYMBOL current 560 288 R0
WINDOW 123 0 0 Left 2
WINDOW 39 0 0 Left 2
SYMATTR InstName I1
SYMATTR Value {I}
SYMBOL res 448 272 R0
SYMATTR InstName R3
SYMATTR Value 51k
SYMBOL Misc\\battery 736 112 R0
WINDOW 123 0 0 Left 2
WINDOW 39 24 128 Left 2
SYMATTR InstName V2
SYMATTR Value 5V
SYMBOL npn 1008 112 R0
SYMATTR InstName Q3
SYMATTR Value 2N3904
SYMBOL res 896 16 R0
SYMATTR InstName R4
SYMATTR Value 10k
SYMBOL res 896 224 R0
SYMATTR InstName R5
SYMATTR Value 33k
SYMBOL current 1296 288 R0
WINDOW 123 0 0 Left 2
WINDOW 39 0 0 Left 2
SYMATTR InstName I2
SYMATTR Value {I}
SYMBOL pnp 1136 128 M180
SYMATTR InstName Q4
SYMATTR Value 2N3906
SYMBOL res 1184 272 R0
SYMATTR InstName R6
SYMATTR Value 51k
TEXT -208 376 Left 2 !.op
TEXT -216 344 Left 2 !.step dec param I 0.1m 1000m 10
